/*--------------------------------*- C++ -*----------------------------------*\
| =========                 |                                                 |
| \\      /  F ield         | OpenFOAM: The Open Source CFD Toolbox           |
|  \\    /   O peration     | Version:  v2206                                 |
|   \\  /    A nd           | Website:  www.openfoam.com                      |
|    \\/     M anipulation  |                                                 |
\*---------------------------------------------------------------------------*/
FoamFile
{
    version     2.0;
    format      ascii;
    class       dictionary;
    object      blockMeshDict;
}
// * * * * * * * * * * * * * * * * * * * * * * * * * * * * * * * * * * * * * //

scale   1;

xl  5;
yl  2.5;
zl  0.2;

nx 200;
ny 100;
nz 1; 

vertices
(
    (0 0 0)
    ($xl 0 0)
    ($xl $yl 0)
    (0 $yl 0)
    (0 0 $zl)
    ($xl 0 $zl)
    ($xl $yl $zl)
    (0 $yl $zl)
);

blocks
(
    hex (0 1 2 3 4 5 6 7) ($nx $ny $nz) simpleGrading (1 1 1)
);

edges
(
);

boundary
(
/*
    inlet
    {
        type patch;
        faces
        (
            (3 0 4 7)
            
        );
    }

    outlet
    {
        type patch;
        faces
        (
            (2 6 5 1)   
        );
    }

    top
    {
        type patch;
        faces
        (
            (3 7 6 2)   
        );
    }

    bottom
    {
        type patch;
        faces
        (
            (1 5 4 0)  
        );
    }
*/

    frontAndBack
    {
        type empty;
        faces
        (
            (3 0 4 7)
            (2 6 5 1)
            (3 7 6 2)
            (1 5 4 0)
            (0 3 2 1)
            (4 5 6 7)
        );
    }
);


// ************************************************************************* //

