/*--------------------------------*- C++ -*----------------------------------*\
| =========                 |                                                 |
| \\      /  F ield         | OpenFOAM: The Open Source CFD Toolbox           |
|  \\    /   O peration     | Version:  2206                                  |
|   \\  /    A nd           | Website:  www.openfoam.com                      |
|    \\/     M anipulation  |                                                 |
\*---------------------------------------------------------------------------*/
FoamFile
{
    version     2.0;
    format      ascii;
    arch        "LSB;label=32;scalar=64";
    class       polyBoundaryMesh;
    location    "constant/polyMesh";
    object      boundary;
}
// * * * * * * * * * * * * * * * * * * * * * * * * * * * * * * * * * * * * * //

5
(
    inlet
    {
        type            cyclic;
        inGroups        1(cyclic);
        nFaces          1;
        startFace       299;
        matchTolerance  0.0001;
        transform       unknown;
        neighbourPatch  outlet;
    }
    outlet
    {
        type            cyclic;
        inGroups        1(cyclic);
        nFaces          1;
        startFace       300;
        matchTolerance  0.0001;
        transform       unknown;
        neighbourPatch  inlet;
    }
    top
    {
        type            patch;
        nFaces          300;
        startFace       301;
    }
    bottom
    {
        type            patch;
        nFaces          300;
        startFace       601;
    }
    frontAndBack
    {
        type            empty;
        inGroups        1(empty);
        nFaces          600;
        startFace       901;
    }
)

// ************************************************************************* //
