/*--------------------------------*- C++ -*----------------------------------*\
| =========                 |                                                 |
| \\      /  F ield         | OpenFOAM: The Open Source CFD Toolbox           |
|  \\    /   O peration     | Version:  v2206                                 |
|   \\  /    A nd           | Website:  www.openfoam.com                      |
|    \\/     M anipulation  |                                                 |
\*---------------------------------------------------------------------------*/
FoamFile
{
    version     2.0;
    format      ascii;
    class       volScalarField;
    object      T;
}
// * * * * * * * * * * * * * * * * * * * * * * * * * * * * * * * * * * * * * //

dimensions      [0 0 0 1 0 0 0];

internalField   uniform 300;

boundaryField
{
    boundary1
    {
        type            fixedValue;
        value           uniform 350;
    }

    boundary2
    {
        type            fixedValue;
	    value           uniform 300;
    }

    boundary3
    {
        type            fixedValue;
	    value           uniform 300;
    }

    boundary4
    {
        type            fixedValue;
	    value           uniform 240;
    }
    


    frontAndBack
    {
        type            empty;
    }
}


// ************************************************************************* //
